
  Chime   01120401053D

 24 24  0        0              1 V2000
   -0.4920    0.6080   -0.8800 C   0  0  0  0  0  0  0  0  0  0  0  0
   -1.5200    0.7600    0.2520 C   0  0  0  0  0  0  0  0  0  0  0  0
   -1.2240   -0.2040    1.4040 C   0  0  0  0  0  0  0  0  0  0  0  0
    0.2360   -0.0360    1.8280 C   0  0  0  0  0  0  0  0  0  0  0  0
    1.1200   -0.2080    0.5960 C   0  0  0  0  0  0  0  0  0  0  0  0
    0.8200    0.7440   -0.3840 O   0  0  0  0  0  0  0  0  0  0  0  0
   -0.6760    1.6800   -1.9640 C   0  0  0  0  0  0  0  0  0  0  0  0
   -1.7000    1.6480   -2.3400 H   0  0  0  0  0  0  0  0  0  0  0  0
    1.2280    1.5080   -2.8200 H   0  0  0  0  0  0  0  0  0  0  0  0
   -0.5120    2.7040   -1.5600 H   0  0  0  0  0  0  0  0  0  0  0  0
    0.2320    1.4480   -3.1360 O   0  0  0  0  0  0  0  0  0  0  0  0
    0.5520   -1.0120    2.7880 O   0  0  0  0  0  0  0  0  0  0  0  0
   -2.0600    0.0760    2.4960 O   0  0  0  0  0  0  0  0  0  0  0  0
   -2.8120    0.4880   -0.2320 O   0  0  0  0  0  0  0  0  0  0  0  0
    2.4240    0.2200    0.8560 O   0  0  0  0  0  0  0  0  0  0  0  0
    0.3960    0.9560    2.3040 H   0  0  0  0  0  0  0  0  0  0  0  0
   -1.9640   -0.6320    3.1080 H   0  0  0  0  0  0  0  0  0  0  0  0
    1.4040   -0.7960    3.1400 H   0  0  0  0  0  0  0  0  0  0  0  0
   -1.4280   -1.2560    1.0920 H   0  0  0  0  0  0  0  0  0  0  0  0
   -1.5320    1.8120    0.6280 H   0  0  0  0  0  0  0  0  0  0  0  0
   -3.0120    1.1040   -0.9200 H   0  0  0  0  0  0  0  0  0  0  0  0
    2.6600    0.7000    0.0800 H   0  0  0  0  0  0  0  0  0  0  0  0
    1.1560   -1.2320    0.1520 H   0  0  0  0  0  0  0  0  0  0  0  0
   -0.5800   -0.4000   -1.3480 H   0  0  0  0  0  0  0  0  0  0  0  0
  1 24  1  0
  5 23  1  0
 15 22  1  0
 14 21  1  0
  2 20  1  0
  3 19  1  0
 12 18  1  0
 13 17  1  0
  4 16  1  0
  5 15  1  0
  2 14  1  0
  3 13  1  0
  4 12  1  0
  7 11  1  0
  7 10  1  0
  9 11  1  0
  7  8  1  0
  1  7  1  0
  5  6  1  0
  1  6  1  0
  4  5  1  0
  3  4  1  0
  2  3  1  0
  1  2  1  0
M  END